***** HSPICE -- G-2012.06-SP2 32-BIT (Nov 27 2012) RHEL32 ******
 Input File: test.sp
 lic:
 lic: FLEXlm: v10.9.8
 lic: USER:   b04099               HOSTNAME: cad16
 lic: HOSTID:                      PID:      22225
 lic: Using FLEXlm license file:
 lic: 26585@lscic
 lic: Checkout 1 hspice
 lic: License/Maintenance for hspice will expire on 14-may-2019/2017.12
 lic: 102(in_use)/150(total) FLOATING license(s) on SERVER lscic
 lic:
 init: begin read circuit files,  cpu clock=  4.00E-02
       option search = /usr/cad/synopsys/hspice/cur/hspice/parts/ad
       option search = /usr/cad/synopsys/hspice/cur/hspice/parts/ad
       option search = /usr/cad/synopsys/hspice/cur/hspice/parts/behave
       option search = /usr/cad/synopsys/hspice/cur/hspice/parts/bjt
       option search = /usr/cad/synopsys/hspice/cur/hspice/parts/burr_b
                         rn
       option search = /usr/cad/synopsys/hspice/cur/hspice/parts/comlin
                         ear
       option search = /usr/cad/synopsys/hspice/cur/hspice/parts/dio
       option search = /usr/cad/synopsys/hspice/cur/hspice/parts/fet
       option search = /usr/cad/synopsys/hspice/cur/hspice/parts/lin_te
                         ch
       option search = /usr/cad/synopsys/hspice/cur/hspice/parts/pci
       option search = /usr/cad/synopsys/hspice/cur/hspice/parts/signet
       option search = /usr/cad/synopsys/hspice/cur/hspice/parts/ti
       option search = /usr/cad/synopsys/hspice/cur/hspice/parts/tline
       option search = /usr/cad/synopsys/hspice/cur/hspice/parts/xilinx
       option runlvl
       option scale =    2.000E-07
       option post
 init: end read circuit files,  cpu clock=  4.00E-02 peak memory=        97 mb
 init: begin check errors,  cpu clock=  4.00E-02
 init: end check errors,  cpu clock=  4.00E-02 peak memory=        97 mb
 init: begin setup matrix, pivot=     0 cpu clock=  4.00E-02
       establish matrix -- done,  cpu clock=  4.00E-02 peak memory=        97 mb
       re-order matrix -- done,  cpu clock=  4.00E-02 peak memory=        97 mb
 init: end setup matrix,  cpu clock=  4.00E-02 peak memory=        97 mb
 dcop: begin dcop,  cpu clock=  4.00E-02
 dcop: end dcop,  cpu clock=  5.00E-02 peak memory=        97 mb                tot_iter=       6
 output: test.tr0
 sweep: tran tran0    begin, stop_t=  1.00E-06 #sweeps=  11 cpu clock=  5.00E-02
 tran: time= 1.3000E-07 tot_iter=       4 conv_iter=       2 cpu clock= 5.00E-02
 tran: time= 2.0019E-07 tot_iter=      48 conv_iter=      13 cpu clock= 5.00E-02
 tran: time= 3.0000E-07 tot_iter=      91 conv_iter=      28 cpu clock= 5.00E-02
 tran: time= 4.4203E-07 tot_iter=     113 conv_iter=      37 cpu clock= 5.00E-02
 tran: time= 5.0000E-07 tot_iter=     123 conv_iter=      41 cpu clock= 5.00E-02
 tran: time= 6.4950E-07 tot_iter=     155 conv_iter=      53 cpu clock= 5.00E-02
 tran: time= 7.9500E-07 tot_iter=     157 conv_iter=      54 cpu clock= 5.00E-02
 tran: time= 8.0054E-07 tot_iter=     172 conv_iter=      58 cpu clock= 5.00E-02
 tran: time= 9.1349E-07 tot_iter=     203 conv_iter=      69 cpu clock= 5.00E-02
 tran: time= 1.0000E-06 tot_iter=     209 conv_iter=      71 cpu clock= 5.00E-02
 sweep: tran tran0    end,  cpu clock=  5.00E-02 peak memory=        98 mb
>info:         ***** hspice job concluded
 lic: Release hspice token(s)
